<?xml version="1.0" encoding="UTF-8"?>

<!-- generated on 2022-01-05 14:36:22 by Eclipse SUMO duarouter Version v1_10_0+0524-c3664ce0c1
<configuration xmlns:xsi="http://www.w3.org/2001/XMLSchema-instance" xsi:noNamespaceSchemaLocation="http://sumo.dlr.de/xsd/duarouterConfiguration.xsd">

    <input>
        <net-file value="/home/saurabh-vanet/sumo/tools/2022-01-05-14-35-41/osm.net.xml"/>
        <additional-files value="/home/saurabh-vanet/sumo/tools/2022-01-05-14-35-41/osm_stops.add.xml,/home/saurabh-vanet/sumo/tools/2022-01-05-14-35-41/osm_pt.rou.xml"/>
        <route-files value="/home/saurabh-vanet/sumo/tools/2022-01-05-14-35-41/osm.pedestrian.trips.xml"/>
    </input>

    <output>
        <output-file value="/home/saurabh-vanet/sumo/tools/2022-01-05-14-35-41/osm.pedestrian.rou.xml"/>
        <alternatives-output value="/home/saurabh-vanet/sumo/tools/2022-01-05-14-35-41/osm.pedestrian.rou.alt.xml"/>
    </output>

    <time>
        <begin value="0"/>
        <end value="3600"/>
    </time>

    <report>
        <no-warnings value="true"/>
        <ignore-errors value="true"/>
        <no-step-log value="true"/>
    </report>

</configuration>
-->

<routes xmlns:xsi="http://www.w3.org/2001/XMLSchema-instance" xsi:noNamespaceSchemaLocation="http://sumo.dlr.de/xsd/routes_file.xsd">
    <vType id="ped_pedestrian" vClass="pedestrian"/>
    <person id="ped0" type="ped_pedestrian" depart="0.00">
        <walk edges="428486925 335043662 82168044 25959559#2 25959559#1 465376258#1 465376260#1 254523888#0 335704571 254523912#1 254523912#0 254523897 254523901#0 254523901#1" busStop="27412232"/> <!-- S Friedrichstraße -->
        <ride busStop="27411240" lines="S5:1" intended="pt_train_S5:1.0" depart="172.00"/> <!-- S Hackescher Markt -->
        <walk edges="1018271757 47986659 280007140#5 475297457#0 275008387#2 4613101 -168942727#0"/>
    </person>
    <person id="ped1" type="ped_pedestrian" depart="3.25">
        <walk edges="171423002#1" busStop="8090274121"/> <!-- U Unter den Linden -->
        <walk edges="882389496#1 882389496#0 -169999355#2 -11483007#2 -83517336#1 35578576#2 35578576#1 35578576#0 -195397561#0 439783174 780327561 339201224 -31313667#2 -31313667#1 -31313667#0 -492340367#0 137630045"/>
    </person>
    <person id="ped2" type="ped_pedestrian" depart="6.50">
        <walk edges="4773026#0 4773026#1 23121445#3 23121445#2 202157030 -202156991#2 708628328 4610599 553649892 15971191#0 15971191#1 23809670#3 23809670#2 23809670#1 30721662#3 30721662#2 30721662#1 -4610362#8 -4610362#7 -4610362#6 -4610362#5 -4610362#4 -4610362#2 4610361 30721660#4 4610351#1 4610351#0 -454285423#0 454285423#1"/>
    </person>
    <person id="ped3" type="ped_pedestrian" depart="9.75">
        <walk edges="780334232#1 202156998#5 202156998#4 202156998#3 202156998#2 202156998#1 202156998#0 202156997#1 202156997#0 159482052#2 159482052#1 159482052#0 -136571494#3 260138645#1 260138645#0 757944649 169067264#2 169067264#5 169067264#6 1006720290#0 424344294#1 23013165#1 831694400 -23121445#5 -23121445#4 -23121445#3 -23121445#2 -23121445#1 -23121445#0 -339201177#5 -339201177#4"/>
    </person>
    <person id="ped4" type="ped_pedestrian" depart="13.00">
        <walk edges="25302636#1 25294729#0 -156364570#1 -156364570#3 28016312#1 28016312#0 15971191#1 15971191#0 553649892 4610599 553121565 553121566 553121560 133885750#4 -133885749#0 -133885749#1 -133885749#2 -202157003#0 -202157003#1 -183649398"/>
    </person>
    <person id="ped5" type="ped_pedestrian" depart="16.25">
        <walk edges="134021300#1 134021300#2 33207312#0 4773027#1 4773027#0 23121445#2 202157030 -202156991#2 708628328 4610599 553649892 15971191#0 15971191#1 23809670#3 23809670#2 23809670#1 30721662#3 30721662#2 30721662#1 -4610362#8 -4610362#7 -4610362#6 -4610362#5 -4610362#4 -4610362#2 4610361 30721660#4 30721660#3"/>
    </person>
    <person id="ped6" type="ped_pedestrian" depart="19.50">
        <walk edges="-169999355#2 882389496#0" busStop="8170794617"/> <!-- U Unter den Linden -->
        <walk edges="171423002#5 881527239#2 881527239#3 915958597#1 881527239#7" busStop="8087330616"/> <!-- U Unter den Linden -->
        <ride busStop="8196661136" lines="U5:0" intended="pt_subway_U5:0.0" depart="287.00"/> <!-- U Rotes Rathaus -->
        <walk edges="-194962375#2 -194962375#1 -194962375#0 -751595929#2 687804453#1 606078068#0 61583424#1 534588621#0 534588621#1 72157174#1 171826986#3 171826986#1 171826986#0 171826985#1 113595955#2"/>
    </person>
    <person id="ped7" type="ped_pedestrian" depart="22.75">
        <walk edges="43239248 23813206#2 43239303#1 43239303#0 -62363401 168942727#3 168942727#2 168942727#1 168942727#0 4613101 275008387#2 275008387#1" busStop="1745157971"/> <!-- S Hackescher Markt -->
        <ride busStop="2603331695" lines="S5:0" intended="pt_train_S5:0.1" depart="820.00"/> <!-- S Friedrichstraße -->
        <walk edges="335043665#1" busStop="27412232"/> <!-- S Friedrichstraße -->
        <walk edges="254523901#1 237520773#2 335576648#0 335576644#0 254523877 254523906#0 335576650#1 337139761 254523863#1 337139762"/>
    </person>
    <person id="ped8" type="ped_pedestrian" depart="26.00">
        <walk edges="134021303 -202157003#0 -133885749#2 -133885749#1 -133885749#0 133885750#4 553121560 553121566 553121565 4610599 553649892 15971191#0 15971191#1 28016312#0 28016312#1 156364556#1 202157002#0 100113531#2 100113531#0 4773465#1 171826987#0 375901786"/>
    </person>
    <person id="ped9" type="ped_pedestrian" depart="29.25">
        <walk edges="570058779 507303361 570058781#0 570058781#1 133885750#0 553121559 553649890 553649891#0 -339201177#3 -339201177#2 -339201177#1 -339201177#0 -15971189 -4610600 -4610480 83517339 -132460632#0 -132460631#0"/>
    </person>
    <person id="ped10" type="ped_pedestrian" depart="32.50">
        <walk edges="569067824#1 570058781#1 133885750#0 553121559 553649890 553649891#0 -339201177#3 -339201177#2 -339201177#1 -339201177#0 -15971189 -4610600 168937986#5 168937986#4 168937986#3 168937986#1 -66071379#0 -474362271 -66071370 -4611713#0 4611708#1 4611708#2"/>
    </person>
    <person id="ped11" type="ped_pedestrian" depart="35.76">
        <walk edges="202157003#2 -202157031#1 -202157031#2 569067824#0 569067825 -133885745#0 133885750#1 133885750#0 553121559 553649890 553649891#0 -339201177#3 -339201177#2 -339201177#1 -339201177#0 -15971189 -4610600 168937986#5 168937986#4 168937986#3 168937986#1 -66071379#0 -474362271 -66071370"/>
    </person>
    <person id="ped12" type="ped_pedestrian" depart="39.01">
        <walk edges="899946806 66071366#1 66071366#2 66071366#3 23755950#0 23755950#1 23755950#2 4611696#1 4611696#4 4611696#5 8008608 -120675240#4 -120675240#3 -120675240#2 202817674#0 202817674#3 202817674#4 202817674#5 202817674#6 -38208961 136571494#0 785281156 339201239#1 372802936#0 23851897#2 202156999#0"/>
    </person>
    <person id="ped13" type="ped_pedestrian" depart="42.26">
        <walk edges="-35557161#1 66071366#0 66071366#1 66071366#2 66071366#3 23755950#0 23755950#1 23755950#2 4611696#1 4611696#4 4611696#5 8008608 -120675240#4 -120675240#3 -120675240#2 202817674#0 202817674#3 202817674#4 202817674#5 202817674#6 -38208961"/>
    </person>
    <person id="ped14" type="ped_pedestrian" depart="45.51">
        <walk edges="687787214#0 687787215 687623781#1 687807360 312392977 564139999#3 628330909#0 1000864517#1 687804451#1 687804453#1 -751595929#2" busStop="8196661137"/> <!-- U Rotes Rathaus -->
        <ride busStop="8090274121" lines="U5:1" intended="pt_subway_U5:1.1" depart="583.00"/> <!-- U Unter den Linden -->
        <walk edges="882389496#1 882389496#0 169999355#0" busStop="9023382187"/> <!-- U Unter den Linden -->
        <ride busStop="3869306762" lines="147:1" intended="pt_bus_147:1.0" depart="861.00"/> <!-- Friedrichstraße/Reinhardtstraße -->
        <walk edges="111251382#3 388702039#5" busStop="990017251"/> <!-- U Oranienburger Tor -->
        <walk edges="388702039#3 388702039#2 388702039#1"/>
    </person>
    <person id="ped15" type="ped_pedestrian" depart="48.76">
        <walk edges="569067828 569067820 -23809670#2 -23809670#1 -30721662#3 -30721662#2 30721662#1 -4610362#8 -4610362#7 -4610362#6 -4610362#5 -4610362#4 -4610362#2 -4610362#1 -4610362#0 437325047#0 474154190#0 474154190#1"/>
    </person>
    <person id="ped16" type="ped_pedestrian" depart="52.01">
        <walk edges="335576650#0 254523906#0 254523877 335576644#0 335576648#0 237520773#2 254523901#1 254523901#0 254523897 254523912#0 254523912#1 335704571 254523888#0 465376259#1 465376261#2 465376242 195411604 83517336#0 153698394#1 153698394#2 171423002#10 171423002#9 881527239#8 915958601#2"/>
    </person>
    <person id="ped17" type="ped_pedestrian" depart="55.26">
        <walk edges="23121445#1 23121445#2 23121445#3 23121445#4 23121445#5 831694400 23013165#1 424344294#1 424344287 424344292 137630049 424344310 23813203 260138639#0 260138639#1 260138639#2 339201222 339201239#0 339201239#1 339201239#2 339201239#3 339201239#4 339201239#5 125513274 125513277 23851911 339201230"/>
    </person>
    <person id="ped18" type="ped_pedestrian" depart="58.51">
        <walk edges="625843712 23851919 23851930 23851927 81112790#1 606078065 156364553#0 156364553#1 751595930 606078064#0 687804453#0 -751595929#2" busStop="8196661137"/> <!-- U Rotes Rathaus -->
        <ride busStop="8090274121" lines="U5:1" intended="pt_subway_U5:1.1" depart="583.00"/> <!-- U Unter den Linden -->
        <walk edges="882389496#1 882389496#0 169999355#0" busStop="9023382187"/> <!-- U Unter den Linden -->
        <ride busStop="3869306764" lines="147:1" intended="pt_bus_147:1.0" depart="861.00"/> <!-- S+U Friedrichstraße -->
        <walk edges="4402228 190447766#1 190447767" busStop="2792364395"/> <!-- U Friedrichstraße -->
        <walk edges="274513566#1 274513544 335043658 274513581#1 43185718#2 43185718#1 398295307"/>
    </person>
    <person id="ped19" type="ped_pedestrian" depart="61.76">
        <walk edges="690327002#3 388702039#5" busStop="990017251"/> <!-- U Oranienburger Tor -->
        <ride busStop="247600965" lines="12:0" intended="pt_tram_12:0.0" depart="177.00"/> <!-- S+U Friedrichstraße -->
        <walk edges="465376242 465376261#2 195411602#1" busStop="2792364395"/> <!-- U Friedrichstraße -->
        <ride busStop="8170769020" lines="U6:1" intended="pt_subway_U6:1.0" depart="453.00"/> <!-- U Unter den Linden -->
        <walk edges="-882389497 171423001#0 171423001#1 196850624#0 196850614 196850628 373866703#1"/>
    </person>
    <person id="ped20" type="ped_pedestrian" depart="65.01">
        <walk edges="463829476#0" busStop="247603398"/> <!-- Am Kupfergraben -->
        <walk edges="340498976#10 83517339 -4610480 -4610600 -15971189 -339201177#0 -339201177#1 -339201177#2 -339201177#3 553649891#0 553649890 553121559 133885750#0 133885750#1 -133885745#0 569067825 569067824#0 -202157031#2 -202157031#1"/>
    </person>
    <person id="ped21" type="ped_pedestrian" depart="68.26">
        <walk edges="150634670#2 339201224 31313667#3 15977422#0 -114667396#0 38211708#1 38211708#0 340498982#2 340498982#3 340498982#4" busStop="3870475228"/> <!-- Staatsoper -->
        <ride busStop="3867910421" lines="300:1" intended="pt_bus_300:1.0" depart="734.00"/> <!-- U Museumsinsel -->
        <ride busStop="1827996414" lines="100:1" intended="pt_bus_100:1.1" depart="896.00"/> <!-- Spandauer Straße/Marienkirche -->
        <walk edges="72157174#1 171826986#3 171826986#1 173278835"/>
    </person>
    <person id="ped22" type="ped_pedestrian" depart="71.51">
        <walk edges="-31313667#2 339201224 780327561 439783174 -195397561#0 35578576#0 35578576#1 35578576#2 -83517336#1 158023913#4"/>
    </person>
    <person id="ped23" type="ped_pedestrian" depart="74.76">
        <walk edges="-409506039#0 561049080 -43156728#4 -120675240#2 -120675240#3 -120675240#4 8008608 -4611696#5 -43230873#0 -43230873#1 4611694" busStop="7974928190"/> <!-- U Museumsinsel -->
        <ride busStop="8090274121" lines="U5:1" intended="pt_subway_U5:1.1" depart="679.00"/> <!-- U Unter den Linden -->
        <walk edges="882389496#2 171423002#0 915958611#3" busStop="8170794617"/> <!-- U Unter den Linden -->
        <walk edges="915958599#0 171423002#3"/>
    </person>
    <person id="ped24" type="ped_pedestrian" depart="78.01">
        <walk edges="424344305 48095488 48095588#3 48095588#2 48095588#1 437499015 437499010 437499008 437499013 316301061 4840974#2 202157024#0 202157024#1 -28016312#0 -28016312#3 222470308 475297966#0 475297966#1 47986664#3 222470309#0"/>
    </person>
    <person id="ped25" type="ped_pedestrian" depart="81.26">
        <walk edges="229531161#1 375901776#3 375901776#2 375901784 375901768#2 375901779#1 202157002#2 202157002#1 202157002#0 156364556#1 28016312#1 28016312#0 15971191#1 15971191#0 553649892 4610599 553121565 553121566 553121560 133885750#4 -133885749#0 133885743#0"/>
    </person>
    <person id="ped26" type="ped_pedestrian" depart="84.51">
        <walk edges="170370361#3 -170370361#2 170852444 170852466 170852468 170852451 170852455 46517262#4" busStop="1633759760"/> <!-- S Hackescher Markt -->
        <ride busStop="30731481" lines="M4:2" intended="pt_tram_M4:2.0" depart="143.00"/> <!-- Spandauer Straße/Marienkirche -->
        <walk edges="473149641 375901779#6 171826987#2 171826987#1 534588621#1 534588621#0 61583424#1 606078068#0 687804453#1 -751595929#2" busStop="8196661137"/> <!-- U Rotes Rathaus -->
        <ride busStop="8090274121" lines="U5:1" intended="pt_subway_U5:1.1" depart="583.00"/> <!-- U Unter den Linden -->
        <walk edges="882389496#2 171423002#0 915958611#3" busStop="8170794617"/> <!-- U Unter den Linden -->
        <walk edges="915958599#0 171423002#3 915958620#3 915958617 882389498 881245042 882389499#1 882389499#2 882389499#3 882389482 881611351"/>
    </person>
    <person id="ped27" type="ped_pedestrian" depart="87.76">
        <walk edges="43231842#0 4611693#1 4611693#0 305153173 -4611694" busStop="7974928190"/> <!-- U Museumsinsel -->
        <ride busStop="8090274121" lines="U5:1" intended="pt_subway_U5:1.0" depart="379.00"/> <!-- U Unter den Linden -->
        <walk edges="882389496#1 882389496#0 -169999355#2 -11483007#2 22972195#2 465376239" busStop="1823298700"/> <!-- S+U Friedrichstraße -->
        <ride busStop="30731700" lines="12:1" intended="pt_tram_12:1.1" depart="932.00"/> <!-- U Oranienburger Tor -->
        <walk edges="388702041#11 388702041#10 388702041#9 388702041#8 388702041#7 388702041#6"/>
    </person>
    <person id="ped28" type="ped_pedestrian" depart="91.01">
        <walk edges="-822122788#1 -822122788#0 534588621#1 171826987#5 473149645"/>
    </person>
    <person id="ped29" type="ped_pedestrian" depart="94.26">
        <walk edges="-734578686 831860725#0 4611696#1 54781811#0 54781811#1 305153174 4611694 251884680 339201217#0 628330913 15971197#0 54048863 61584187#4 121717657#0 202157029#3 202157029#2 4773023#1 134021300#4 4773026#0 4773026#1 23121445#3"/>
    </person>
    <person id="ped30" type="ped_pedestrian" depart="97.51">
        <walk edges="942234137 942234136 942234134 -942234138#0 24243107#1 24243107#0 -24243101 339201185 4610472#0 4610472#1 -4610472#4 465376254 -4402228" busStop="-3869306765"/> <!-- S+U Friedrichstraße -->
        <ride busStop="-3867910422" lines="147:0" intended="pt_bus_147:0.0" depart="690.00"/> <!-- Neumannsgasse -->
        <walk edges="-755551646#0 -755551646#1 755551646#2 43156728#2"/>
    </person>
    <person id="ped31" type="ped_pedestrian" depart="100.77">
        <walk edges="340498976#10 340498976#8 340498976#6 122820534#1 -195262644 -4610476#3 -24243092#0 -24243092#1 22972454 195397561#1 195397561#2 195397561#5 4610472#2"/>
    </person>
    <person id="ped32" type="ped_pedestrian" depart="104.02">
        <walk edges="687623781#0 687787215 687787214#0 61583422 687787260 312392974#2 312392974#1 171826986#4 171826986#3 171826986#1 171826986#0 171826985#1 113595955#2 113595955#1 113595955#0 25294731#1 170517259 51912365#0"/>
    </person>
    <person id="ped33" type="ped_pedestrian" depart="107.27">
        <walk edges="153698394#2 -66071373#3 -194069449#2 -194069449#1"/>
    </person>
    <person id="ped34" type="ped_pedestrian" depart="110.52">
        <walk edges="194962998#1 974193162 974193163 868590783" busStop="7974955393"/> <!-- U Museumsinsel -->
        <ride busStop="8196661136" lines="U5:0" intended="pt_subway_U5:0.0" depart="381.00"/> <!-- U Rotes Rathaus -->
        <walk edges="-194962375#2 -194962375#1 -194962375#0 -751595929#2 687804453#1 606078068#0 61583424#1 534588621#0 534588621#1 72157174#1 171826986#3 171826986#1 171826986#0 171826985#1 113595955#2 113595955#1 113595955#0 25294731#1 170517259"/>
    </person>
    <person id="ped35" type="ped_pedestrian" depart="113.77">
        <walk edges="133885745#1 -339201177#4 -339201177#3 -339201177#2 -339201177#1 -339201177#0 -15971189 -4610600 168937986#5 168937986#4 168937986#3 168937986#1 169195795#0 169195795#1 169195795#4 169195795#5 169195795#6 169195795#7 169195795#9 882389494"/>
    </person>
    <person id="ped36" type="ped_pedestrian" depart="117.02">
        <walk edges="741727852 741727855 28120501#1 28120501#0 -68647306#3 -68647306#2 803471185 205728152#3 32508498 -24242882#3 -24242882#2 -24242882#1 -243854725#4 -66071373#3 461526152#0" busStop="8087330616"/> <!-- U Unter den Linden -->
        <ride busStop="8196661136" lines="U5:0" intended="pt_subway_U5:0.1" depart="587.00"/> <!-- U Rotes Rathaus -->
        <walk edges="194962375#2"/>
    </person>
    <person id="ped37" type="ped_pedestrian" depart="120.27">
        <walk edges="437499015 437499010 437499008 437499013 316301061 4840974#2 202157024#0 202157024#1 23809670#3 -23809670#2 -23809670#1 31959087#1 -31959087#0 -31959089 47986661#0 23809677"/>
    </person>
    <person id="ped38" type="ped_pedestrian" depart="123.52">
        <walk edges="83517336#0 153698394#1 -153698394#4 66071373#1 243854725#4 -24242882#1 -24242882#2 -24242882#3 -4611706#0 260426116"/>
    </person>
    <person id="ped39" type="ped_pedestrian" depart="126.77">
        <walk edges="170302412#0 170302412#1 47986661#2 47986661#1 47986661#0 -31959089 -31959087#0 31959087#1 -23809670#1 -23809670#2 23809670#3 15971191#1 15971191#0 553649892 4610599 164874309#1 164874309#0 164874306 164874304 164874305 164874310"/>
    </person>
    <person id="ped40" type="ped_pedestrian" depart="130.02">
        <walk edges="340498982#8 340498982#9 168937986#1 168937986#3 168937986#4 168937986#5 -4610600 -15971189 -339201177#0 -339201177#1 -339201177#2 -339201177#3 -339201177#4 -339201177#5 -202156991#0 -202156991#1 -202156991#2 708628328 4610599 553649892 15971191#0 15971191#1 -28016312#0 -28016312#3 46517262#6 46517262#5 46517262#4 46517262#3 46517262#2 46517262#1 46517262#0 170098545#2"/>
    </person>
    <person id="ped41" type="ped_pedestrian" depart="133.27">
        <walk edges="375901776#3 202157023#1 202157023#0 202157026#2 202157026#1 169067264#2 169067264#1 169067264#0 -136571494#1 -136571494#0 38208961 -202817674#6 -202817674#5 -202817674#4 -202817674#3 -202817674#2 120675240#0 -120675240#3 -120675240#4 8008608"/>
    </person>
    <person id="ped42" type="ped_pedestrian" depart="136.52">
        <walk edges="23851908 23851905 159482053 202156998#2 202156998#1 202156998#0 43158961#3 202157011 202156999#1 159482050#2 159482050#1 379797004#2 379797004#1 379797004#0 606078068#2 606078071#0 534588621#0" busStop="6682293818"/> <!-- U Rotes Rathaus -->
        <ride busStop="3867910420" lines="300:0" intended="pt_bus_300:0.0" depart="663.00"/> <!-- U Museumsinsel -->
        <walk edges="61584187#2 4773024#0 4773024#1 134021300#1 134021300#2 134021300#3"/>
    </person>
    <person id="ped43" type="ped_pedestrian" depart="139.77">
        <walk edges="974193168 -202817674#2 -202817674#3 -202817674#4 -202817674#5 -202817674#6 38208961 -136571494#0 -136571494#1 169067264#0 169067264#1 169067264#2 202157026#1 202157026#2 202157023#0 202157023#1 375901776#2 375901784 72157174#1 171826986#4 312392974#1 312392974#2"/>
    </person>
    <person id="ped44" type="ped_pedestrian" depart="143.02">
        <walk edges="-34848160#1 -34848160#2 194073677#0 422002325 237520773#1 237520773#2 254523901#1" busStop="27412232"/> <!-- S Friedrichstraße -->
        <ride busStop="27411240" lines="S3:1" intended="pt_train_S3:1.0" depart="362.00"/> <!-- S Hackescher Markt -->
        <walk edges="377110615 377110622#3 280007142#1 475297967#0 275008387#0 47986661#0 -31959089 -31959087#0 31959087#1 -23809670#1 -23809670#2 23809670#3 15971191#1 15971191#0 553649892 4610599 553121565 553121566 553121560 133885750#4 133885750#3 133957852 133957850 -202157031#4"/>
    </person>
    <person id="ped45" type="ped_pedestrian" depart="146.27">
        <walk edges="-437325047#3 -437325047#2 -437325047#0 -30721660#5" busStop="1661927028"/> <!-- Monbijouplatz -->
        <ride busStop="1668685086" lines="M1:3" intended="pt_tram_M1:3.0" depart="414.00"/> <!-- U Oranienburger Tor -->
        <walk edges="388702041#11 388702041#10 388702041#9 388702041#8 388702041#7 388702041#6 388702041#5 388702041#4 388702041#3 388702041#2 42103020#0"/>
    </person>
    <person id="ped46" type="ped_pedestrian" depart="149.52">
        <walk edges="554949051#1 554949050 51234180#1 51234180#0 23852029 23852046#1 23852046#0 -30721662#3 170098545#0 170098545#1 170098545#2 46517262#0 46517262#1 46517262#2 46517262#3 46517262#4 46517262#5 46517262#6 156364570#2 -156364570#1 25294729#0 25302636#1"/>
    </person>
    <person id="ped47" type="ped_pedestrian" depart="152.77">
        <walk edges="-24243092#0 -24243092#1 38711947#2 38711947#1 38711947#0 190447767" busStop="2792364395"/> <!-- U Friedrichstraße -->
        <walk edges="195411602#1 254523888#1 254523888#0 335704571 254523912#1 254523912#0 254523897 254523901#0 254523901#1" busStop="27412232"/> <!-- S Friedrichstraße -->
        <ride busStop="27411240" lines="S9:1" intended="pt_train_S9:1.0" depart="430.00"/> <!-- S Hackescher Markt -->
        <walk edges="1018271757 47986659 280007140#5 475297457#0 275008387#2 4613101 168942727#0 168942727#1 168942727#2 168942727#3 -62363401 234463931#6 234319315"/>
    </person>
    <person id="ped48" type="ped_pedestrian" depart="156.02">
        <walk edges="974193165#1 974193165#0 -194962998#0 194962998#1 120675240#3 120675240#4 -8008608 -4611696#5 -43230873#0 -43230873#1 4611694" busStop="7974928190"/> <!-- U Museumsinsel -->
        <ride busStop="8090274121" lines="U5:1" intended="pt_subway_U5:1.1" depart="679.00"/> <!-- U Unter den Linden -->
        <walk edges="882389496#1 882389496#0 169999355#0" busStop="9023382187"/> <!-- U Unter den Linden -->
        <ride busStop="3869306764" lines="147:1" intended="pt_bus_147:1.0" depart="861.00"/> <!-- S+U Friedrichstraße -->
        <walk edges="4402228" busStop="3869306769"/> <!-- U Friedrichstraße -->
        <walk edges="-4402228 465376260#1 254523888#0 335704571 254523912#1 335576646#4 335703509 335703512 335703507 254523886 335043665#0"/>
    </person>
    <person id="ped49" type="ped_pedestrian" depart="159.27">
        <walk edges="915958599#1 915958599#0" busStop="8170794617"/> <!-- U Unter den Linden -->
        <ride busStop="3869306769" lines="U6:0" intended="pt_subway_U6:0.0" depart="437.00"/> <!-- U Friedrichstraße -->
        <walk edges="4402228 465376254 222328410 -6228081 541295974 30720544#0 30720544#1 541295973#1 690327002#0"/>
    </person>
    <person id="ped50" type="ped_pedestrian" depart="162.52">
        <walk edges="-133885749#2 -133885749#1 -133885743#0 -133885743#1 -202157031#4 -133885745#0 133885750#1 133885750#0 553121559 553649890 553649891#0 -339201177#3 -339201177#2 -339201177#1 -339201177#0 -15971189 -4610600 4610480 83517334#2 -22972219#1 -4610476#1" busStop="1673526976"/> <!-- Georgenstraße/Am Kupfergraben -->
        <ride busStop="30731700" lines="12:1" intended="pt_tram_12:1.1" depart="837.00"/> <!-- U Oranienburger Tor -->
        <walk edges="388702041#11 388702041#10 388702041#9 388702041#8 388702041#7 388702041#6 388702041#5 388702041#4 388702041#3 388702041#2 374734394#4 374734394#5 374734394#6 374734394#7 465376251#2"/>
    </person>
    <person id="ped51" type="ped_pedestrian" depart="165.78">
        <walk edges="4610362#6 4610362#7 4610362#8 30721662#1 -30721662#2 23809677 275008387#0 275008387#1" busStop="1745157971"/> <!-- S Hackescher Markt -->
        <ride busStop="2603331695" lines="S3:0" intended="pt_train_S3:0.0" depart="408.00"/> <!-- S Friedrichstraße -->
        <walk edges="335043665#1" busStop="27412232"/> <!-- S Friedrichstraße -->
        <walk edges="254523901#1 237520773#2 335576648#0 335576644#0 254523877 254523906#0 335576650#1"/>
    </person>
    <person id="ped52" type="ped_pedestrian" depart="169.03">
        <walk edges="170370361#3 -170370361#2 170852444 170852466 170852468 170852451 170852455 46517262#4" busStop="1633759760"/> <!-- S Hackescher Markt -->
        <ride busStop="30731481" lines="M6:1" intended="pt_tram_M6:1.0" depart="229.00"/> <!-- Spandauer Straße/Marienkirche -->
        <walk edges="473149641 375901779#6 171826987#2 171826987#1 534588621#1 -534588621#0 606078071#0 606078068#2 379797004#0 379797004#1 379797004#2 379797004#3 504442989 202156999#3 43158961#0 43158961#1 43158961#2"/>
    </person>
    <person id="ped53" type="ped_pedestrian" depart="172.28">
        <walk edges="-4412868 11483007#0 195411604 465376242 465376261#2 465376259#1 254523888#0 335704571 254523912#1 335576646#4 254523910 254523867"/>
    </person>
    <person id="ped54" type="ped_pedestrian" depart="175.53">
        <walk edges="260138641#1 260138641#2 260138647#2 260138647#1 260138647#0 375901776#6 375901776#7 606078068#2 606078068#0 687804453#1 -751595929#2" busStop="8196661137"/> <!-- U Rotes Rathaus -->
        <ride busStop="8090274121" lines="U5:1" intended="pt_subway_U5:1.1" depart="583.00"/> <!-- U Unter den Linden -->
        <walk edges="882389496#3 915958585 881245040 883691541#3"/>
    </person>
    <person id="ped55" type="ped_pedestrian" depart="178.78">
        <walk edges="730274542 51167933#2 225400606#1 225400606#0 -437325047#2 -437325047#0 4610362#0 4610362#1 4610362#2 4610362#4 4610362#5 4610362#6 4610362#7 4610362#8 30721662#1 -30721662#2 -30721662#3 170098545#0 170098545#1 170098545#2 170098545#3 170098545#4"/>
    </person>
    <person id="ped56" type="ped_pedestrian" depart="182.03">
        <walk edges="304514893#9 -31959087#0 31959087#1 -23809670#1 -23809670#2 23809670#3 202157024#1 202157024#0 4840974#2 316301061 437499013 437499008 437499010 437499015 48095588#1 48095588#2 48095588#3 48095488 424344305 48095234 424344298 424344315 424344283 424344316 202157019 339201228 424344310 23813203 260138639#0 260138639#1 628151235 628151234 628151236 169067264#1 169067264#0 -136571494#1 -136571494#0 38208961 -202817674#6 -202817674#5 -931745735"/>
    </person>
    <person id="ped57" type="ped_pedestrian" depart="185.28">
        <walk edges="831860725#0 -4611696#3 -54781811#0 -54781811#1 -305153174 -4611694" busStop="7974928190"/> <!-- U Museumsinsel -->
        <ride busStop="8090274121" lines="U5:1" intended="pt_subway_U5:1.1" depart="679.00"/> <!-- U Unter den Linden -->
        <walk edges="882389496#1 882389496#0 169999355#0" busStop="9023382187"/> <!-- U Unter den Linden -->
        <ride busStop="3869306764" lines="147:1" intended="pt_bus_147:1.0" depart="861.00"/> <!-- S+U Friedrichstraße -->
        <walk edges="4402228 -516398559#1 195397561#2 711640736#0 711640736#3"/>
    </person>
    <person id="ped58" type="ped_pedestrian" depart="188.53">
        <walk edges="181587283 339201248 -24243107#0 -24243101 339201185 4610472#0 4610472#1 -4610472#4 -34848160#1 -34848160#2 194073677#0 422002325 237520773#1 237520773#2 237520773#3 237520773#4 254339598#1 428486924"/>
    </person>
    <person id="ped59" type="ped_pedestrian" depart="191.78">
        <walk edges="388702041#5 388702041#4 388702041#3 388702041#2 42103020#0 30720544#1 30720544#0 541295974 -6228081 222328410 -465376254 -4402228" busStop="-3869306765"/> <!-- S+U Friedrichstraße -->
        <ride busStop="-9023382186" lines="147:0" intended="pt_bus_147:0.0" depart="690.00"/> <!-- U Unter den Linden -->
        <walk edges="-194069450#2 461526152#0" busStop="8087330616"/> <!-- U Unter den Linden -->
        <ride busStop="8196661136" lines="U5:0" intended="pt_subway_U5:0.3" depart="1187.00"/> <!-- U Rotes Rathaus -->
        <walk edges="194962375#2 194962375#1 -628330906"/>
    </person>
    <person id="ped60" type="ped_pedestrian" depart="195.03">
        <walk edges="51167562#5 51167562#6 181587286#0 51234180#1 51234180#0 23852029 23852046#1 23852046#0 23809677 275008387#0 275008387#1" busStop="1745157971"/> <!-- S Hackescher Markt -->
        <ride busStop="2603331695" lines="S5:0" intended="pt_train_S5:0.1" depart="820.00"/> <!-- S Friedrichstraße -->
        <walk edges="335043665#2 254523876 254523899 335703512 335703509"/>
    </person>
    <person id="ped61" type="ped_pedestrian" depart="198.28">
        <walk edges="533594858#1 51167562#0 -437325047#0 -30721660#5" busStop="1661927028"/> <!-- Monbijouplatz -->
        <ride busStop="1668685086" lines="M1:3" intended="pt_tram_M1:3.0" depart="414.00"/> <!-- U Oranienburger Tor -->
        <walk edges="388702039#0 388702039#1 388702039#2 388702039#3" busStop="990017251"/> <!-- U Oranienburger Tor -->
        <ride busStop="247600965" lines="12:0" intended="pt_tram_12:0.1" depart="777.00"/> <!-- S+U Friedrichstraße -->
        <walk edges="465376241 70163730#1 43185731 274513581#3 335043660 274513552 394345494#1 43185718#3 274513581#1 274513581#0 335043667"/>
    </person>
    <person id="ped62" type="ped_pedestrian" depart="201.53">
        <walk edges="-105742454 35578559 -4610476#1 -4610476#2 -4610476#3 -24243092#0 -24243092#1 38711947#2 38711947#1 38711947#0 190447767" busStop="2792364395"/> <!-- U Friedrichstraße -->